<configuration>
    <input>
        <net-file value="network.net.xml"/>  <!-- ✅ Correct path -->
        <route-files value="routes.rou.xml"/>
    </input>
</configuration>





